performance/linearized_pglib_scopf_baseline/pglib_opf_case60_c.json
{"elements": {"bus": {"1": {"matpower_bustype": "PQ", "area": 1.0, "vm": 1.0, "va": -18.781192324916034, "base_kv": 130.0, "zone": 1.0, "v_min": 0.9, "v_max": 1.1, "lmp": 9.999999999999995, "pl": 200.0}, "2": {"matpower_bustype": "PQ", "area": 1.0, "vm": 1.0, "va": -19.816119056552907, "base_kv": 130.0, "zone": 1.0, "v_min": 0.9, "v_max": 1.1, "lmp": 10.000000000000005, "pl": 300.0}, "3": {"matpower_bustype": "PQ", "area": 1.0, "vm": 1.0, "va": -19.252842756691944, "base_kv": 130.0, "zone": 1.0, "v_min": 0.9, "v_max": 1.1, "lmp": 9.999999999999998, "pl": 100.0}, "4": {"matpower_bustype": "PQ", "area": 1.0, "vm": 1.0, "va": -15.119951856851651, "base_kv": 130.0, "zone": 1.0, "v_min": 0.9, "v_max": 1.1, "lmp": 10.00000000000003, "pl": 280.0}, "5": {"matpower_bustype": "PQ", "area": 1.0, "vm": 1.0, "va": 17.241999599210928, "base_kv": 130.0, "zone": 1.0, "v_min": 0.9, "v_max": 1.1, "lmp": 39.897851140314124, "pl": 402.2198}, "6": {"matpower_bustype": "PQ", "area": 1.0, "vm": 1.0, "va": -1.5385614733234407, "base_kv": 130.0, "zone": 1.0, "v_min": 0.9, "v_max": 1.1, "lmp": 21.594348306111925, "pl": 201.2099}, "7": {"matpower_bustype": "PQ", "area": 1.0, "vm": 1.0, "va": 13.626710963956551, "base_kv": 130.0, "zone": 1.0, "v_min": 0.9, "v_max": 1.1, "lmp": 10.0, "pl": 154.2076}, "8": {"matpower_bustype": "PQ", "area": 1.0, "vm": 1.0, "va": 8.721413687947019, "base_kv": 130.0, "zone": 1.0, "v_min": 0.9, "v_max": 1.1, "lmp": 20.175712167169685, "pl": 536.4263}, "9": {"matpower_bustype": "PQ", "area": 1.0, "vm": 1.0, "va": 10.64527868376205, "base_kv": 130.0, "zone": 1.0, "v_min": 0.9, "v_max": 1.1, "lmp": 24.634282889559582, "pl": 469.4230999999999}, "10": {"matpower_bustype": "PQ", "area": 1.0, "vm": 1.0, "va": -2.686180147487544, "base_kv": 220.0, "zone": 1.0, "v_min": 0.9, "v_max": 1.1, "lmp": 13.593663711608869, "pl": 100.0}, "11": {"matpower_bustype": "PQ", "area": 1.0, "vm": 1.0, "va": 2.2126090008809944, "base_kv": 220.0, "zone": 1.0, "v_min": 0.9, "v_max": 1.1, "lmp": 13.593663711608873, "pl": 200.0}, "12": {"matpower_bustype": "PQ", "area": 1.0, "vm": 1.0, "va": -25.697560241965544, "base_kv": 400.0, "zone": 1.0, "v_min": 0.9, "v_max": 1.1, "lmp": 9.999999999999993, "pl": 300.0}, "13": {"matpower_bustype": "PQ", "area": 1.0, "vm": 1.0, "va": -31.7136170908392, "base_kv": 400.0, "zone": 1.0, "v_min": 0.9, "v_max": 1.1, "lmp": 10.000000000000002, "pl": 2000.0}, "14": {"matpower_bustype": "PQ", "area": 1.0, "vm": 1.0, "va": 3.445320823451877, "base_kv": 400.0, "zone": 1.0, "v_min": 0.9, "v_max": 1.1, "lmp": 17.226950138393487, "pl": 362.0178}, "15": {"matpower_bustype": "PQ", "area": 1.0, "vm": 1.0, "va": 2.6700331297979503, "base_kv": 400.0, "zone": 1.0, "v_min": 0.9, "v_max": 1.1, "lmp": 10.0, "pl": 268.2132}, "16": {"matpower_bustype": "PQ", "area": 1.0, "vm": 1.0, "va": 6.512545054694222, "base_kv": 400.0, "zone": 1.0, "v_min": 0.9, "v_max": 1.1, "lmp": 23.796185268920805, "pl": 603.4296}, "17": {"matpower_bustype": "PQ", "area": 1.0, "vm": 1.0, "va": 6.821917881527587, "base_kv": 400.0, "zone": 1.0, "v_min": 0.9, "v_max": 1.1, "lmp": 23.796185268920805, "pl": 469.4230999999999}, "18": {"matpower_bustype": "PQ", "area": 1.0, "vm": 1.0, "va": 3.251582756385498, "base_kv": 400.0, "zone": 1.0, "v_min": 0.9, "v_max": 1.1, "lmp": 19.99999999999999, "pl": 67.0033}, "19": {"matpower_bustype": "PQ", "area": 1.0, "vm": 1.0, "va": 7.766950645917866, "base_kv": 400.0, "zone": 1.0, "v_min": 0.9, "v_max": 1.1, "lmp": 23.412984445054168, "pl": 536.4263}, "20": {"matpower_bustype": "PQ", "area": 1.0, "vm": 1.0, "va": 6.9409650847153985, "base_kv": 400.0, "zone": 1.0, "v_min": 0.9, "v_max": 1.1, "lmp": 19.146753888736455, "pl": 500.0}, "21": {"matpower_bustype": "PQ", "area": 1.0, "vm": 1.0, "va": 2.765006805079843, "base_kv": 400.0, "zone": 1.0, "v_min": 0.9, "v_max": 1.1, "lmp": 19.999999999999996, "pl": 300.0}, "22": {"matpower_bustype": "PQ", "area": 1.0, "vm": 1.0, "va": 0.5352840922212315, "base_kv": 400.0, "zone": 1.0, "v_min": 0.9, "v_max": 1.1, "lmp": 19.999999999999996, "pl": 590.0}, "23": {"matpower_bustype": "PQ", "area": 1.0, "vm": 1.0, "va": -20.83426950854768, "base_kv": 400.0, "zone": 1.0, "v_min": 0.9, "v_max": 1.1, "lmp": 10.000000000000005, "pl": 0.0}, "24": {"matpower_bustype": "PQ", "area": 1.0, "vm": 1.0, "va": -20.87889096129051, "base_kv": 130.0, "zone": 1.0, "v_min": 0.9, "v_max": 1.1, "lmp": 10.000000000000002, "pl": 0.0}, "25": {"matpower_bustype": "PQ", "area": 1.0, "vm": 1.0, "va": -15.692909651982475, "base_kv": 130.0, "zone": 1.0, "v_min": 0.9, "v_max": 1.1, "lmp": 10.00000000000003, "pl": 0.0}, "26": {"matpower_bustype": "PQ", "area": 1.0, "vm": 1.0, "va": -19.50345058187789, "base_kv": 400.0, "zone": 1.0, "v_min": 0.9, "v_max": 1.1, "lmp": 10.0, "pl": 0.0}, "27": {"matpower_bustype": "PQ", "area": 1.0, "vm": 1.0, "va": -5.918613632817571, "base_kv": 400.0, "zone": 1.0, "v_min": 0.9, "v_max": 1.1, "lmp": 14.468413093520748, "pl": 0.0}, "28": {"matpower_bustype": "PQ", "area": 1.0, "vm": 1.0, "va": -13.802683612265175, "base_kv": 400.0, "zone": 1.0, "v_min": 0.9, "v_max": 1.1, "lmp": 10.00000000000003, "pl": 0.0}, "29": {"matpower_bustype": "PQ", "area": 1.0, "vm": 1.0, "va": -2.35863705713538, "base_kv": 400.0, "zone": 1.0, "v_min": 0.9, "v_max": 1.1, "lmp": 17.447355155867857, "pl": 0.0}, "30": {"matpower_bustype": "PQ", "area": 1.0, "vm": 1.0, "va": 8.395797638208299, "base_kv": 400.0, "zone": 1.0, "v_min": 0.9, "v_max": 1.1, "lmp": 7.021057937652838, "pl": 0.0}, "31": {"matpower_bustype": "PQ", "area": 1.0, "vm": 1.0, "va": -4.585124083832437, "base_kv": 400.0, "zone": 1.0, "v_min": 0.9, "v_max": 1.1, "lmp": 13.593663711608869, "pl": 0.0}, "32": {"matpower_bustype": "PQ", "area": 1.0, "vm": 1.0, "va": 11.47576573073619, "base_kv": 400.0, "zone": 1.0, "v_min": 0.9, "v_max": 1.1, "lmp": 20.860236565178102, "pl": 0.0}, "33": {"matpower_bustype": "PQ", "area": 1.0, "vm": 1.0, "va": 11.475765730736187, "base_kv": 400.0, "zone": 1.0, "v_min": 0.9, "v_max": 1.1, "lmp": 20.860236565178102, "pl": 0.0}, "34": {"matpower_bustype": "PQ", "area": 1.0, "vm": 1.0, "va": 6.022773260181073, "base_kv": 400.0, "zone": 1.0, "v_min": 0.9, "v_max": 1.1, "lmp": 5.034662133704005, "pl": 0.0}, "35": {"matpower_bustype": "PQ", "area": 1.0, "vm": 1.0, "va": 12.515871933938806, "base_kv": 400.0, "zone": 1.0, "v_min": 0.9, "v_max": 1.1, "lmp": 23.766803885159447, "pl": 0.0}, "36": {"matpower_bustype": "PQ", "area": 1.0, "vm": 1.0, "va": 6.937931062285988, "base_kv": 400.0, "zone": 1.0, "v_min": 0.9, "v_max": 1.1, "lmp": 21.397010611675103, "pl": 0.0}, "37": {"matpower_bustype": "PQ", "area": 1.0, "vm": 1.0, "va": 8.95381782162869, "base_kv": 400.0, "zone": 1.0, "v_min": 0.9, "v_max": 1.1, "lmp": 23.412984445054164, "pl": 0.0}, "38": {"matpower_bustype": "PV", "area": 1.0, "vm": 1.0, "va": -19.92354864313994, "base_kv": 15.0, "zone": 1.0, "v_min": 0.9, "v_max": 1.1, "lmp": 10.000000000000005, "pl": 0.0}, "39": {"matpower_bustype": "PV", "area": 1.0, "vm": 1.0, "va": -19.39608220547465, "base_kv": 15.0, "zone": 1.0, "v_min": 0.9, "v_max": 1.1, "lmp": 9.999999999999998, "pl": 0.0}, "40": {"matpower_bustype": "PV", "area": 1.0, "vm": 1.0, "va": -22.778766421380265, "base_kv": 15.0, "zone": 1.0, "v_min": 0.9, "v_max": 1.1, "lmp": 10.000000000000002, "pl": 0.0}, "41": {"matpower_bustype": "PV", "area": 1.0, "vm": 1.0, "va": -15.836149100765182, "base_kv": 15.0, "zone": 1.0, "v_min": 0.9, "v_max": 1.1, "lmp": 10.00000000000003, "pl": 0.0}, "42": {"matpower_bustype": "PV", "area": 1.0, "vm": 1.0, "va": -31.44924901808011, "base_kv": 15.0, "zone": 1.0, "v_min": 0.9, "v_max": 1.1, "lmp": 10.00000000000003, "pl": 0.0}, "43": {"matpower_bustype": "PV", "area": 1.0, "vm": 1.0, "va": -10.132928400285788, "base_kv": 15.0, "zone": 1.0, "v_min": 0.9, "v_max": 1.1, "lmp": 20.0, "pl": 0.0}, "44": {"matpower_bustype": "PV", "area": 1.0, "vm": 1.0, "va": 7.1593382817072735, "base_kv": 15.0, "zone": 1.0, "v_min": 0.9, "v_max": 1.1, "lmp": 10.0, "pl": 0.0}, "45": {"matpower_bustype": "PV", "area": 1.0, "vm": 1.0, "va": 2.111499138774258, "base_kv": 15.0, "zone": 1.0, "v_min": 0.9, "v_max": 1.1, "lmp": 13.593663711608873, "pl": 0.0}, "46": {"matpower_bustype": "PV", "area": 1.0, "vm": 1.0, "va": -21.99419621127259, "base_kv": 15.0, "zone": 1.0, "v_min": 0.9, "v_max": 1.1, "lmp": 10.0, "pl": 0.0}, "47": {"matpower_bustype": "PV", "area": 1.0, "vm": 1.0, "va": -28.569199742813797, "base_kv": 15.0, "zone": 1.0, "v_min": 0.9, "v_max": 1.1, "lmp": 10.000000000000005, "pl": 0.0}, "48": {"matpower_bustype": "PV", "area": 1.0, "vm": 1.0, "va": -6.205092530382983, "base_kv": 15.0, "zone": 1.0, "v_min": 0.9, "v_max": 1.1, "lmp": 14.468413093520748, "pl": 0.0}, "49": {"matpower_bustype": "PV", "area": 1.0, "vm": 1.0, "va": -18.704394113737408, "base_kv": 15.0, "zone": 1.0, "v_min": 0.9, "v_max": 1.1, "lmp": 13.593663711608869, "pl": 0.0}, "50": {"matpower_bustype": "PV", "area": 1.0, "vm": 1.0, "va": 3.445320823451877, "base_kv": 15.0, "zone": 1.0, "v_min": 0.9, "v_max": 1.1, "lmp": 17.226950138393487, "pl": 0.0}, "51": {"matpower_bustype": "PV", "area": 1.0, "vm": 1.0, "va": -4.923897344292819, "base_kv": 15.0, "zone": 1.0, "v_min": 0.9, "v_max": 1.1, "lmp": 10.0, "pl": 0.0}, "52": {"matpower_bustype": "ref", "area": 1.0, "vm": 1.0, "va": -0.0, "base_kv": 15.0, "zone": 1.0, "v_min": 0.9, "v_max": 1.1, "lmp": 20.0, "pl": 0.0}, "53": {"matpower_bustype": "PV", "area": 1.0, "vm": 1.0, "va": -4.483347477880616, "base_kv": 15.0, "zone": 1.0, "v_min": 0.9, "v_max": 1.1, "lmp": 19.99999999999999, "pl": 0.0}, "54": {"matpower_bustype": "PV", "area": 1.0, "vm": 1.0, "va": 0.03186571304706743, "base_kv": 15.0, "zone": 1.0, "v_min": 0.9, "v_max": 1.1, "lmp": 23.412984445054168, "pl": 0.0}, "55": {"matpower_bustype": "PV", "area": 1.0, "vm": 1.0, "va": 7.644171519999282, "base_kv": 15.0, "zone": 1.0, "v_min": 0.9, "v_max": 1.1, "lmp": 23.412984445054168, "pl": 0.0}, "56": {"matpower_bustype": "PV", "area": 1.0, "vm": 1.0, "va": -4.969923429186272, "base_kv": 15.0, "zone": 1.0, "v_min": 0.9, "v_max": 1.1, "lmp": 19.999999999999996, "pl": 0.0}, "57": {"matpower_bustype": "PV", "area": 1.0, "vm": 1.0, "va": -3.8971176731233164, "base_kv": 15.0, "zone": 1.0, "v_min": 0.9, "v_max": 1.1, "lmp": 19.999999999999996, "pl": 0.0}, "58": {"matpower_bustype": "PV", "area": 1.0, "vm": 1.0, "va": -7.199646142044883, "base_kv": 15.0, "zone": 1.0, "v_min": 0.9, "v_max": 1.1, "lmp": 19.999999999999996, "pl": 0.0}, "59": {"matpower_bustype": "PV", "area": 1.0, "vm": 1.0, "va": -25.869447580504794, "base_kv": 15.0, "zone": 1.0, "v_min": 0.9, "v_max": 1.1, "lmp": 9.999999999999993, "pl": 0.0}, "60": {"matpower_bustype": "PV", "area": 1.0, "vm": 1.0, "va": -36.869721585000995, "base_kv": 15.0, "zone": 1.0, "v_min": 0.9, "v_max": 1.1, "lmp": 10.000000000000002, "pl": 0.0}}, "load": {"load_1": {"in_service": true, "p_load": 200.0, "q_load": 80.0, "bus": "1"}, "load_2": {"in_service": true, "p_load": 300.0, "q_load": 100.0, "bus": "2"}, "load_3": {"in_service": true, "p_load": 100.0, "q_load": 40.0, "bus": "3"}, "load_4": {"in_service": true, "p_load": 280.0, "q_load": 95.0, "bus": "4"}, "load_5": {"in_service": true, "p_load": 402.2198, "q_load": 190.111, "bus": "5"}, "load_6": {"in_service": true, "p_load": 201.2099, "q_load": 75.06049, "bus": "6"}, "load_7": {"in_service": true, "p_load": 154.2076, "q_load": 96.21037, "bus": "7"}, "load_8": {"in_service": true, "p_load": 536.4263, "q_load": 286.8214, "bus": "8"}, "load_9": {"in_service": true, "p_load": 469.4230999999999, "q_load": 238.47119999999998, "bus": "9"}, "load_10": {"in_service": true, "p_load": 100.0, "q_load": 30.0, "bus": "10"}, "load_11": {"in_service": true, "p_load": 200.0, "q_load": 50.0, "bus": "11"}, "load_12": {"in_service": true, "p_load": 300.0, "q_load": 100.0, "bus": "12"}, "load_13": {"in_service": true, "p_load": 2000.0, "q_load": 500.0, "bus": "13"}, "load_14": {"in_service": true, "p_load": 362.0178, "q_load": 151.1009, "bus": "14"}, "load_15": {"in_service": true, "p_load": 268.2132, "q_load": 143.4107, "bus": "15"}, "load_16": {"in_service": true, "p_load": 603.4296, "q_load": 288.1715, "bus": "16"}, "load_17": {"in_service": true, "p_load": 469.4230999999999, "q_load": 238.47119999999998, "bus": "17"}, "load_18": {"in_service": true, "p_load": 67.0033, "q_load": 48.35017, "bus": "18"}, "load_19": {"in_service": true, "p_load": 536.4263, "q_load": 288.8214, "bus": "19"}, "load_20": {"in_service": true, "p_load": 500.0, "q_load": 149.0, "bus": "20"}, "load_21": {"in_service": true, "p_load": 300.0, "q_load": 100.0, "bus": "21"}, "load_22": {"in_service": true, "p_load": 590.0, "q_load": 300.0, "bus": "22"}}, "shunt": {"shunt_1": {"shunt_type": "fixed", "bs": -340.12, "gs": 0.0, "bus": "1"}, "shunt_4": {"shunt_type": "fixed", "bs": 150.0, "gs": 0.0, "bus": "4"}, "shunt_5": {"shunt_type": "fixed", "bs": 200.0, "gs": 0.0, "bus": "5"}, "shunt_7": {"shunt_type": "fixed", "bs": 100.0, "gs": 0.0, "bus": "7"}, "shunt_8": {"shunt_type": "fixed", "bs": 200.0, "gs": 0.0, "bus": "8"}, "shunt_9": {"shunt_type": "fixed", "bs": 200.0, "gs": 0.0, "bus": "9"}, "shunt_12": {"shunt_type": "fixed", "bs": -400.0, "gs": 0.0, "bus": "12"}, "shunt_14": {"shunt_type": "fixed", "bs": 200.0, "gs": 0.0, "bus": "14"}, "shunt_16": {"shunt_type": "fixed", "bs": 200.0, "gs": 0.0, "bus": "16"}, "shunt_17": {"shunt_type": "fixed", "bs": 100.0, "gs": 0.0, "bus": "17"}, "shunt_19": {"shunt_type": "fixed", "bs": 100.0, "gs": 0.0, "bus": "19"}, "shunt_23": {"shunt_type": "fixed", "bs": -100.0, "gs": 0.0, "bus": "23"}}, "generator": {"1": {"bus": "38", "pg": 10.0, "qg": 0.0, "vg": 1.0, "mbase": 800.0, "in_service": true, "p_min": 10.0, "p_max": 720.0, "q_min": -720.0, "q_max": 720.0, "generator_type": "thermal", "p_cost": {"data_type": "cost_curve", "cost_curve_type": "piecewise", "values": [[10.0, 100.0], [246.66666666666669, 2466.6666666666665], [483.3333333333333, 4833.333333333333], [720.0, 7200.0]]}, "startup_cost": 0.0, "shutdown_cost": 0.0}, "2": {"bus": "39", "pg": 10.0, "qg": 0.0, "vg": 1.0, "mbase": 600.0, "in_service": true, "p_min": 10.0, "p_max": 540.0, "q_min": -540.0, "q_max": 540.0, "generator_type": "thermal", "p_cost": {"data_type": "cost_curve", "cost_curve_type": "piecewise", "values": [[10.0, 200.0], [186.66666666666666, 3733.333333333333], [363.3333333333333, 7266.666666666666], [540.0, 10800.0]]}, "startup_cost": 0.0, "shutdown_cost": 0.0}, "3": {"bus": "40", "pg": 154.73928861079997, "qg": 0.0, "vg": 1.0, "mbase": 700.0, "in_service": true, "p_min": 10.0, "p_max": 630.0, "q_min": -630.0, "q_max": 630.0, "generator_type": "thermal", "p_cost": {"data_type": "cost_curve", "cost_curve_type": "piecewise", "values": [[10.0, 100.0], [216.66666666666666, 2166.6666666666665], [423.3333333333333, 4233.333333333333], [630.0, 6300.0]]}, "startup_cost": 0.0, "shutdown_cost": 0.0}, "4": {"bus": "41", "pg": 10.0, "qg": 0.0, "vg": 1.0, "mbase": 600.0, "in_service": true, "p_min": 10.0, "p_max": 540.0, "q_min": -540.0, "q_max": 540.0, "generator_type": "thermal", "p_cost": {"data_type": "cost_curve", "cost_curve_type": "piecewise", "values": [[10.0, 300.0], [186.66666666666666, 5600.0], [363.3333333333333, 10900.0], [540.0, 16200.0]]}, "startup_cost": 0.0, "shutdown_cost": 0.0}, "5": {"bus": "42", "pg": 475.0, "qg": 50.0, "vg": 1.0, "mbase": 400.0, "in_service": true, "p_min": 10.0, "p_max": 475.0, "q_min": -225.0, "q_max": 325.0, "generator_type": "thermal", "p_cost": {"data_type": "cost_curve", "cost_curve_type": "piecewise", "values": [[10.0, 100.0], [165.0, 1650.0], [320.0, 3200.0], [475.0, 4750.0]]}, "startup_cost": 0.0, "shutdown_cost": 0.0}, "6": {"bus": "43", "pg": 400.0, "qg": 100.0, "vg": 1.0, "mbase": 600.0, "in_service": true, "p_min": 10.0, "p_max": 560.0, "q_min": -360.0, "q_max": 560.0, "generator_type": "thermal", "p_cost": {"data_type": "cost_curve", "cost_curve_type": "piecewise", "values": [[10.0, 200.0], [193.33333333333334, 3866.666666666667], [376.6666666666667, 7533.333333333334], [560.0, 11200.0]]}, "startup_cost": 0.0, "shutdown_cost": 0.0}, "7": {"bus": "44", "pg": 150.50259634504923, "qg": 40.0, "vg": 1.0, "mbase": 400.0, "in_service": true, "p_min": 10.0, "p_max": 380.0, "q_min": -280.0, "q_max": 360.0, "generator_type": "thermal", "p_cost": {"data_type": "cost_curve", "cost_curve_type": "piecewise", "values": [[10.0, 100.0], [133.33333333333331, 1333.333333333333], [256.66666666666663, 2566.666666666666], [380.0, 3800.0]]}, "startup_cost": 0.0, "shutdown_cost": 0.0}, "8": {"bus": "45", "pg": 10.0, "qg": 100.0, "vg": 1.0, "mbase": 1000.0, "in_service": true, "p_min": 10.0, "p_max": 965.0, "q_min": -765.0, "q_max": 965.0, "generator_type": "thermal", "p_cost": {"data_type": "cost_curve", "cost_curve_type": "piecewise", "values": [[10.0, 300.0], [328.3333333333333, 9850.0], [646.6666666666666, 19400.0], [965.0, 28950.0]]}, "startup_cost": 0.0, "shutdown_cost": 0.0}, "9": {"bus": "46", "pg": 289.81141375064044, "qg": 0.0, "vg": 1.0, "mbase": 1000.0, "in_service": true, "p_min": 10.0, "p_max": 900.0, "q_min": -900.0, "q_max": 900.0, "generator_type": "thermal", "p_cost": {"data_type": "cost_curve", "cost_curve_type": "piecewise", "values": [[10.0, 100.0], [306.6666666666667, 3066.666666666667], [603.3333333333334, 6033.333333333334], [900.0, 9000.0]]}, "startup_cost": 0.0, "shutdown_cost": 0.0}, "10": {"bus": "47", "pg": 720.0, "qg": 0.0, "vg": 1.0, "mbase": 800.0, "in_service": true, "p_min": 10.0, "p_max": 720.0, "q_min": -720.0, "q_max": 720.0, "generator_type": "thermal", "p_cost": {"data_type": "cost_curve", "cost_curve_type": "piecewise", "values": [[10.0, 100.0], [246.66666666666669, 2466.6666666666665], [483.3333333333333, 4833.333333333333], [720.0, 7200.0]]}, "startup_cost": 0.0, "shutdown_cost": 0.0}, "11": {"bus": "48", "pg": 10.0, "qg": 100.0, "vg": 1.0, "mbase": 600.0, "in_service": true, "p_min": 10.0, "p_max": 570.0, "q_min": -370.0, "q_max": 570.0, "generator_type": "thermal", "p_cost": {"data_type": "cost_curve", "cost_curve_type": "piecewise", "values": [[10.0, 200.0], [196.66666666666666, 3933.333333333333], [383.3333333333333, 7666.666666666666], [570.0, 11400.0]]}, "startup_cost": 0.0, "shutdown_cost": 0.0}, "12": {"bus": "49", "pg": 575.0, "qg": 50.0, "vg": 1.0, "mbase": 600.0, "in_service": true, "p_min": 10.0, "p_max": 575.0, "q_min": -415.00000000000006, "q_max": 515.0, "generator_type": "thermal", "p_cost": {"data_type": "cost_curve", "cost_curve_type": "piecewise", "values": [[10.0, 100.0], [198.33333333333334, 1983.3333333333335], [386.6666666666667, 3866.666666666667], [575.0, 5750.0]]}, "startup_cost": 0.0, "shutdown_cost": 0.0}, "13": {"bus": "50", "pg": 0.0, "qg": 0.0, "vg": 1.0, "mbase": 600.0, "in_service": true, "p_min": 0.0, "p_max": 0.0, "q_min": -570.0, "q_max": 570.0, "generator_type": "thermal", "p_cost": {"data_type": "cost_curve", "cost_curve_type": "piecewise", "values": [[0.0, 0.0]]}, "startup_cost": 0.0, "shutdown_cost": 0.0}, "14": {"bus": "51", "pg": 618.5033829876236, "qg": 0.0, "vg": 1.0, "mbase": 700.0, "in_service": true, "p_min": 10.0, "p_max": 630.0, "q_min": -630.0, "q_max": 630.0, "generator_type": "thermal", "p_cost": {"data_type": "cost_curve", "cost_curve_type": "piecewise", "values": [[10.0, 100.0], [216.66666666666666, 2166.6666666666665], [423.3333333333333, 4233.333333333333], [630.0, 6300.0]]}, "startup_cost": 0.0, "shutdown_cost": 0.0}, "15": {"bus": "52", "pg": 227.00330000000264, "qg": 650.0, "vg": 1.0, "mbase": 3000.0, "in_service": true, "p_min": 10.0, "p_max": 2800.0, "q_min": -540.0, "q_max": 1839.9999999999998, "generator_type": "thermal", "p_cost": {"data_type": "cost_curve", "cost_curve_type": "piecewise", "values": [[10.0, 200.0], [940.0, 18800.0], [1870.0, 37400.0], [2800.0, 56000.0]]}, "startup_cost": 0.0, "shutdown_cost": 0.0}, "16": {"bus": "53", "pg": 540.0, "qg": 20.0, "vg": 1.0, "mbase": 600.0, "in_service": true, "p_min": 10.0, "p_max": 540.0, "q_min": -540.0, "q_max": 580.0, "generator_type": "thermal", "p_cost": {"data_type": "cost_curve", "cost_curve_type": "piecewise", "values": [[10.0, 100.0], [186.66666666666666, 1866.6666666666665], [363.3333333333333, 3633.333333333333], [540.0, 5400.0]]}, "startup_cost": 0.0, "shutdown_cost": 0.0}, "17": {"bus": "54", "pg": 630.0, "qg": 0.0, "vg": 1.0, "mbase": 700.0, "in_service": true, "p_min": 10.0, "p_max": 630.0, "q_min": -630.0, "q_max": 630.0, "generator_type": "thermal", "p_cost": {"data_type": "cost_curve", "cost_curve_type": "piecewise", "values": [[10.0, 100.0], [216.66666666666666, 2166.6666666666665], [423.3333333333333, 4233.333333333333], [630.0, 6300.0]]}, "startup_cost": 0.0, "shutdown_cost": 0.0}, "18": {"bus": "55", "pg": 10.0, "qg": 0.0, "vg": 1.0, "mbase": 700.0, "in_service": true, "p_min": 10.0, "p_max": 630.0, "q_min": -630.0, "q_max": 630.0, "generator_type": "thermal", "p_cost": {"data_type": "cost_curve", "cost_curve_type": "piecewise", "values": [[10.0, 300.0], [216.66666666666666, 6500.0], [423.3333333333333, 12700.0], [630.0, 18900.0]]}, "startup_cost": 0.0, "shutdown_cost": 0.0}, "19": {"bus": "56", "pg": 540.0, "qg": 0.0, "vg": 1.0, "mbase": 600.0, "in_service": true, "p_min": 10.0, "p_max": 540.0, "q_min": -540.0, "q_max": 540.0, "generator_type": "thermal", "p_cost": {"data_type": "cost_curve", "cost_curve_type": "piecewise", "values": [[10.0, 100.0], [186.66666666666666, 1866.6666666666665], [363.3333333333333, 3633.333333333333], [540.0, 5400.0]]}, "startup_cost": 0.0, "shutdown_cost": 0.0}, "20": {"bus": "57", "pg": 309.4400183058858, "qg": 0.0, "vg": 1.0, "mbase": 600.0, "in_service": true, "p_min": 10.0, "p_max": 540.0, "q_min": -540.0, "q_max": 540.0, "generator_type": "thermal", "p_cost": {"data_type": "cost_curve", "cost_curve_type": "piecewise", "values": [[10.0, 200.0], [186.66666666666666, 3733.333333333333], [363.3333333333333, 7266.666666666666], [540.0, 10800.0]]}, "startup_cost": 0.0, "shutdown_cost": 0.0}, "21": {"bus": "58", "pg": 540.0, "qg": 0.0, "vg": 1.0, "mbase": 600.0, "in_service": true, "p_min": 10.0, "p_max": 540.0, "q_min": -540.0, "q_max": 540.0, "generator_type": "thermal", "p_cost": {"data_type": "cost_curve", "cost_curve_type": "piecewise", "values": [[10.0, 100.0], [186.66666666666666, 1866.6666666666665], [363.3333333333333, 3633.333333333333], [540.0, 5400.0]]}, "startup_cost": 0.0, "shutdown_cost": 0.0}, "22": {"bus": "59", "pg": 10.0, "qg": 35.0, "vg": 1.0, "mbase": 600.0, "in_service": true, "p_min": 10.0, "p_max": 560.0, "q_min": -450.0, "q_max": 520.0, "generator_type": "thermal", "p_cost": {"data_type": "cost_curve", "cost_curve_type": "piecewise", "values": [[10.0, 300.0], [193.33333333333334, 5800.0], [376.6666666666667, 11300.0], [560.0, 16800.0]]}, "startup_cost": 0.0, "shutdown_cost": 0.0}, "23": {"bus": "60", "pg": 2699.999999999999, "qg": 975.0, "vg": 1.0, "mbase": 5000.0, "in_service": true, "p_min": 10.0, "p_max": 4500.0, "q_min": -2050.0, "q_max": 4000.0, "generator_type": "thermal", "p_cost": {"data_type": "cost_curve", "cost_curve_type": "piecewise", "values": [[10.0, 100.0], [1506.6666666666667, 15066.666666666668], [3003.3333333333335, 30033.333333333336], [4500.0, 45000.0]]}, "startup_cost": 0.0, "shutdown_cost": 0.0}}, "branch": {"1": {"from_bus": "1", "to_bus": "3", "resistance": 0.01, "reactance": 0.07, "charging_susceptance": 0.013804, "branch_type": "line", "rating_long_term": 175.0, "rating_short_term": 175.0, "rating_emergency": 175.0, "in_service": true, "angle_diff_min": -30.0, "angle_diff_max": 30.0, "pf": -11.759789932774959, "qf": null, "pt": null, "qt": null}, "2": {"from_bus": "1", "to_bus": "3", "resistance": 0.01, "reactance": 0.07, "charging_susceptance": 0.013804, "branch_type": "line", "rating_long_term": 175.0, "rating_short_term": 175.0, "rating_emergency": 175.0, "in_service": true, "angle_diff_min": -30.0, "angle_diff_max": 30.0, "pf": -11.759789932774959, "qf": null, "pt": null, "qt": null}, "3": {"from_bus": "2", "to_bus": "24", "resistance": 0.014024, "reactance": 0.09, "charging_susceptance": 0.018052, "branch_type": "line", "rating_long_term": 175.0, "rating_short_term": 175.0, "rating_emergency": 175.0, "in_service": true, "angle_diff_min": -30.0, "angle_diff_max": 30.0, "pf": -20.609854372625204, "qf": null, "pt": null, "qt": null}, "4": {"from_bus": "2", "to_bus": "24", "resistance": 0.014024, "reactance": 0.09, "charging_susceptance": 0.018052, "branch_type": "line", "rating_long_term": 175.0, "rating_short_term": 175.0, "rating_emergency": 175.0, "in_service": true, "angle_diff_min": -30.0, "angle_diff_max": 30.0, "pf": -20.609854372625204, "qf": null, "pt": null, "qt": null}, "5": {"from_bus": "3", "to_bus": "24", "resistance": 0.006982, "reactance": 0.05, "charging_susceptance": 0.010088, "branch_type": "line", "rating_long_term": 175.0, "rating_short_term": 175.0, "rating_emergency": 175.0, "in_service": true, "angle_diff_min": -30.0, "angle_diff_max": 30.0, "pf": -56.759789932774794, "qf": null, "pt": null, "qt": null}, "6": {"from_bus": "3", "to_bus": "24", "resistance": 0.006982, "reactance": 0.05, "charging_susceptance": 0.010088, "branch_type": "line", "rating_long_term": 175.0, "rating_short_term": 175.0, "rating_emergency": 175.0, "in_service": true, "angle_diff_min": -30.0, "angle_diff_max": 30.0, "pf": -56.759789932774794, "qf": null, "pt": null, "qt": null}, "7": {"from_bus": "25", "to_bus": "4", "resistance": 0.03, "reactance": 0.2, "charging_susceptance": 0.030263, "branch_type": "line", "rating_long_term": 175.0, "rating_short_term": 175.0, "rating_emergency": 175.0, "in_service": true, "angle_diff_min": -30.0, "angle_diff_max": 30.0, "pf": 5.000000000000016, "qf": null, "pt": null, "qt": null}, "8": {"from_bus": "25", "to_bus": "4", "resistance": 0.03, "reactance": 0.2, "charging_susceptance": 0.030263, "branch_type": "line", "rating_long_term": 175.0, "rating_short_term": 175.0, "rating_emergency": 175.0, "in_service": true, "angle_diff_min": -30.0, "angle_diff_max": 30.0, "pf": 5.000000000000016, "qf": null, "pt": null, "qt": null}, "9": {"from_bus": "5", "to_bus": "7", "resistance": 0.01, "reactance": 0.06, "charging_susceptance": 0.012211, "branch_type": "line", "rating_long_term": 175.0, "rating_short_term": 175.0, "rating_emergency": 175.0, "in_service": true, "angle_diff_min": -30.0, "angle_diff_max": 30.0, "pf": -105.16448349186878, "qf": null, "pt": null, "qt": null}, "10": {"from_bus": "5", "to_bus": "7", "resistance": 0.01, "reactance": 0.06, "charging_susceptance": 0.012211, "branch_type": "line", "rating_long_term": 175.0, "rating_short_term": 175.0, "rating_emergency": 175.0, "in_service": true, "angle_diff_min": -30.0, "angle_diff_max": 30.0, "pf": -105.16448349186878, "qf": null, "pt": null, "qt": null}, "11": {"from_bus": "5", "to_bus": "9", "resistance": 0.01497, "reactance": 0.12, "charging_susceptance": 0.024954, "branch_type": "line", "rating_long_term": 175.0, "rating_short_term": 175.0, "rating_emergency": 175.0, "in_service": true, "angle_diff_min": -30.0, "angle_diff_max": 30.0, "pf": -95.94541650813117, "qf": null, "pt": null, "qt": null}, "12": {"from_bus": "5", "to_bus": "9", "resistance": 0.01497, "reactance": 0.12, "charging_susceptance": 0.024954, "branch_type": "line", "rating_long_term": 175.0, "rating_short_term": 175.0, "rating_emergency": 175.0, "in_service": true, "angle_diff_min": -30.0, "angle_diff_max": 30.0, "pf": -95.94541650813117, "qf": null, "pt": null, "qt": null}, "13": {"from_bus": "6", "to_bus": "8", "resistance": 0.037988, "reactance": 0.28, "charging_susceptance": 0.059995, "branch_type": "line", "rating_long_term": 175.0, "rating_short_term": 175.0, "rating_emergency": 175.0, "in_service": true, "angle_diff_min": -30.0, "angle_diff_max": 30.0, "pf": 63.95369562035918, "qf": null, "pt": null, "qt": null}, "14": {"from_bus": "6", "to_bus": "8", "resistance": 0.037988, "reactance": 0.28, "charging_susceptance": 0.059995, "branch_type": "line", "rating_long_term": 175.0, "rating_short_term": 175.0, "rating_emergency": 175.0, "in_service": true, "angle_diff_min": -30.0, "angle_diff_max": 30.0, "pf": 63.95369562035918, "qf": null, "pt": null, "qt": null}, "15": {"from_bus": "6", "to_bus": "9", "resistance": 0.05, "reactance": 0.3, "charging_susceptance": 0.059995, "branch_type": "line", "rating_long_term": 175.0, "rating_short_term": 175.0, "rating_emergency": 175.0, "in_service": true, "angle_diff_min": -30.0, "angle_diff_max": 30.0, "pf": 70.88270875928166, "qf": null, "pt": null, "qt": null}, "16": {"from_bus": "7", "to_bus": "8", "resistance": 0.01, "reactance": 0.08, "charging_susceptance": 0.015928, "branch_type": "line", "rating_long_term": 175.0, "rating_short_term": 175.0, "rating_emergency": 175.0, "in_service": true, "angle_diff_min": -30.0, "angle_diff_max": 30.0, "pf": -107.01698531934423, "qf": null, "pt": null, "qt": null}, "17": {"from_bus": "7", "to_bus": "8", "resistance": 0.01, "reactance": 0.08, "charging_susceptance": 0.015928, "branch_type": "line", "rating_long_term": 175.0, "rating_short_term": 175.0, "rating_emergency": 175.0, "in_service": true, "angle_diff_min": -30.0, "angle_diff_max": 30.0, "pf": -107.01698531934423, "qf": null, "pt": null, "qt": null}, "18": {"from_bus": "10", "to_bus": "11", "resistance": 0.012004, "reactance": 0.09, "charging_susceptance": 0.015205, "branch_type": "line", "rating_long_term": 250.0, "rating_short_term": 250.0, "rating_emergency": 250.0, "in_service": true, "angle_diff_min": -30.0, "angle_diff_max": 30.0, "pf": 95.0, "qf": null, "pt": null, "qt": null}, "19": {"from_bus": "10", "to_bus": "11", "resistance": 0.012004, "reactance": 0.09, "charging_susceptance": 0.015205, "branch_type": "line", "rating_long_term": 250.0, "rating_short_term": 250.0, "rating_emergency": 250.0, "in_service": true, "angle_diff_min": -30.0, "angle_diff_max": 30.0, "pf": 95.0, "qf": null, "pt": null, "qt": null}, "20": {"from_bus": "26", "to_bus": "23", "resistance": 0.001, "reactance": 0.008, "charging_susceptance": 0.201062, "branch_type": "line", "rating_long_term": 700.0, "rating_short_term": 700.0, "rating_emergency": 700.0, "in_service": true, "angle_diff_min": -30.0, "angle_diff_max": 30.0, "pf": -290.3396502280606, "qf": null, "pt": null, "qt": null}, "21": {"from_bus": "26", "to_bus": "27", "resistance": 0.006, "reactance": 0.06, "charging_susceptance": 1.799488, "branch_type": "line", "rating_long_term": 700.0, "rating_short_term": 700.0, "rating_emergency": 700.0, "in_service": true, "angle_diff_min": -30.0, "angle_diff_max": 30.0, "pf": 395.1668885128062, "qf": null, "pt": null, "qt": null}, "22": {"from_bus": "26", "to_bus": "28", "resistance": 0.004, "reactance": 0.04, "charging_susceptance": 1.201344, "branch_type": "line", "rating_long_term": 700.0, "rating_short_term": 700.0, "rating_emergency": 700.0, "in_service": true, "angle_diff_min": -30.0, "angle_diff_max": 30.0, "pf": 248.74288377170348, "qf": null, "pt": null, "qt": null}, "23": {"from_bus": "26", "to_bus": "12", "resistance": 0.005, "reactance": 0.045, "charging_susceptance": 1.4024, "branch_type": "line", "rating_long_term": 700.0, "rating_short_term": 700.0, "rating_emergency": 700.0, "in_service": true, "angle_diff_min": -30.0, "angle_diff_max": 30.0, "pf": -240.23912844025864, "qf": null, "pt": null, "qt": null}, "24": {"from_bus": "23", "to_bus": "28", "resistance": 0.004, "reactance": 0.035, "charging_susceptance": 1.05056, "branch_type": "line", "rating_long_term": 700.0, "rating_short_term": 700.0, "rating_emergency": 700.0, "in_service": true, "angle_diff_min": -30.0, "angle_diff_max": 30.0, "pf": 350.64093007693197, "qf": null, "pt": null, "qt": null}, "25": {"from_bus": "23", "to_bus": "12", "resistance": 0.005, "reactance": 0.05, "charging_susceptance": 1.49792, "branch_type": "line", "rating_long_term": 700.0, "rating_short_term": 700.0, "rating_emergency": 700.0, "in_service": true, "angle_diff_min": -30.0, "angle_diff_max": 30.0, "pf": -169.76087155974315, "qf": null, "pt": null, "qt": null}, "26": {"from_bus": "27", "to_bus": "29", "resistance": 0.004, "reactance": 0.04, "charging_susceptance": 1.201344, "branch_type": "line", "rating_long_term": 700.0, "rating_short_term": 700.0, "rating_emergency": 700.0, "in_service": true, "angle_diff_min": -30.0, "angle_diff_max": 30.0, "pf": 155.33328134881833, "qf": null, "pt": null, "qt": null}, "27": {"from_bus": "27", "to_bus": "30", "resistance": 0.01, "reactance": 0.1, "charging_susceptance": 3.000864, "branch_type": "line", "rating_long_term": 700.0, "rating_short_term": 700.0, "rating_emergency": 700.0, "in_service": true, "angle_diff_min": -30.0, "angle_diff_max": 30.0, "pf": 249.8336071639878, "qf": null, "pt": null, "qt": null}, "28": {"from_bus": "30", "to_bus": "15", "resistance": 0.0, "reactance": -0.04, "charging_susceptance": 0.0, "branch_type": "line", "rating_long_term": 700.0, "rating_short_term": 700.0, "rating_emergency": 700.0, "in_service": true, "angle_diff_min": -30.0, "angle_diff_max": 30.0, "pf": 249.83360716398786, "qf": null, "pt": null, "qt": null}, "29": {"from_bus": "28", "to_bus": "31", "resistance": 0.004, "reactance": 0.04, "charging_susceptance": 1.201344, "branch_type": "line", "rating_long_term": 700.0, "rating_short_term": 700.0, "rating_emergency": 700.0, "in_service": true, "angle_diff_min": -30.0, "angle_diff_max": 30.0, "pf": 402.1919069243179, "qf": null, "pt": null, "qt": null}, "30": {"from_bus": "28", "to_bus": "31", "resistance": 0.004, "reactance": 0.04, "charging_susceptance": 1.201344, "branch_type": "line", "rating_long_term": 700.0, "rating_short_term": 700.0, "rating_emergency": 700.0, "in_service": true, "angle_diff_min": -30.0, "angle_diff_max": 30.0, "pf": 402.1919069243179, "qf": null, "pt": null, "qt": null}, "31": {"from_bus": "31", "to_bus": "29", "resistance": 0.001, "reactance": 0.01, "charging_susceptance": 0.301594, "branch_type": "line", "rating_long_term": 700.0, "rating_short_term": 700.0, "rating_emergency": 700.0, "in_service": true, "angle_diff_min": -30.0, "angle_diff_max": 30.0, "pf": 388.59529368802555, "qf": null, "pt": null, "qt": null}, "32": {"from_bus": "31", "to_bus": "32", "resistance": 0.006, "reactance": 0.08, "charging_susceptance": 2.397664, "branch_type": "line", "rating_long_term": 700.0, "rating_short_term": 700.0, "rating_emergency": 700.0, "in_service": true, "angle_diff_min": -30.0, "angle_diff_max": 30.0, "pf": 350.3942600803051, "qf": null, "pt": null, "qt": null}, "33": {"from_bus": "32", "to_bus": "14", "resistance": 0.0, "reactance": -0.04, "charging_susceptance": 0.0, "branch_type": "line", "rating_long_term": 700.0, "rating_short_term": 700.0, "rating_emergency": 700.0, "in_service": true, "angle_diff_min": -30.0, "angle_diff_max": 30.0, "pf": 350.39426008030506, "qf": null, "pt": null, "qt": null}, "34": {"from_bus": "31", "to_bus": "33", "resistance": 0.006, "reactance": 0.08, "charging_susceptance": 2.397664, "branch_type": "line", "rating_long_term": 700.0, "rating_short_term": 700.0, "rating_emergency": 700.0, "in_service": true, "angle_diff_min": -30.0, "angle_diff_max": 30.0, "pf": 350.394260080305, "qf": null, "pt": null, "qt": null}, "35": {"from_bus": "33", "to_bus": "14", "resistance": 0.0, "reactance": -0.04, "charging_susceptance": 0.0, "branch_type": "line", "rating_long_term": 700.0, "rating_short_term": 700.0, "rating_emergency": 700.0, "in_service": true, "angle_diff_min": -30.0, "angle_diff_max": 30.0, "pf": 350.39426008030495, "qf": null, "pt": null, "qt": null}, "36": {"from_bus": "29", "to_bus": "34", "resistance": 0.01, "reactance": 0.066669, "charging_susceptance": 2.000576, "branch_type": "line", "rating_long_term": 700.0, "rating_short_term": 700.0, "rating_emergency": 700.0, "in_service": true, "angle_diff_min": -30.0, "angle_diff_max": 30.0, "pf": 219.41712939716328, "qf": null, "pt": null, "qt": null}, "37": {"from_bus": "34", "to_bus": "15", "resistance": 0.0, "reactance": -0.026669, "charging_susceptance": 0.0, "branch_type": "line", "rating_long_term": 700.0, "rating_short_term": 700.0, "rating_emergency": 700.0, "in_service": true, "angle_diff_min": -30.0, "angle_diff_max": 30.0, "pf": 219.41712939716328, "qf": null, "pt": null, "qt": null}, "38": {"from_bus": "29", "to_bus": "35", "resistance": 0.006, "reactance": 0.08, "charging_susceptance": 2.397664, "branch_type": "line", "rating_long_term": 700.0, "rating_short_term": 700.0, "rating_emergency": 700.0, "in_service": true, "angle_diff_min": -30.0, "angle_diff_max": 30.0, "pf": 324.51144563968046, "qf": null, "pt": null, "qt": null}, "39": {"from_bus": "35", "to_bus": "36", "resistance": 0.0, "reactance": -0.03, "charging_susceptance": 0.0, "branch_type": "line", "rating_long_term": 700.0, "rating_short_term": 700.0, "rating_emergency": 700.0, "in_service": true, "angle_diff_min": -30.0, "angle_diff_max": 30.0, "pf": 324.51144563968046, "qf": null, "pt": null, "qt": null}, "40": {"from_bus": "14", "to_bus": "36", "resistance": 0.003, "reactance": 0.03, "charging_susceptance": 0.899744, "branch_type": "line", "rating_long_term": 700.0, "rating_short_term": 700.0, "rating_emergency": 700.0, "in_service": true, "angle_diff_min": -30.0, "angle_diff_max": 30.0, "pf": 203.19182718840253, "qf": null, "pt": null, "qt": null}, "41": {"from_bus": "14", "to_bus": "20", "resistance": 0.006, "reactance": 0.045, "charging_susceptance": 1.301888, "branch_type": "line", "rating_long_term": 700.0, "rating_short_term": 700.0, "rating_emergency": 700.0, "in_service": true, "angle_diff_min": -30.0, "angle_diff_max": 30.0, "pf": 135.57889297220737, "qf": null, "pt": null, "qt": null}, "42": {"from_bus": "15", "to_bus": "16", "resistance": 0.002, "reactance": 0.015, "charging_susceptance": 0.497632, "branch_type": "line", "rating_long_term": 700.0, "rating_short_term": 700.0, "rating_emergency": 700.0, "in_service": true, "angle_diff_min": -30.0, "angle_diff_max": 30.0, "pf": 447.0965642439001, "qf": null, "pt": null, "qt": null}, "43": {"from_bus": "15", "to_bus": "36", "resistance": 0.002, "reactance": 0.02, "charging_susceptance": 0.598176, "branch_type": "line", "rating_long_term": 700.0, "rating_short_term": 700.0, "rating_emergency": 700.0, "in_service": true, "angle_diff_min": -30.0, "angle_diff_max": 30.0, "pf": 372.4443553048746, "qf": null, "pt": null, "qt": null}, "44": {"from_bus": "16", "to_bus": "36", "resistance": 0.001, "reactance": 0.01, "charging_susceptance": 0.301594, "branch_type": "line", "rating_long_term": 700.0, "rating_short_term": 700.0, "rating_emergency": 700.0, "in_service": true, "angle_diff_min": -30.0, "angle_diff_max": 30.0, "pf": 74.24386424389901, "qf": null, "pt": null, "qt": null}, "45": {"from_bus": "16", "to_bus": "17", "resistance": 0.001, "reactance": 0.01, "charging_susceptance": 0.301594, "branch_type": "line", "rating_long_term": 700.0, "rating_short_term": 700.0, "rating_emergency": 700.0, "in_service": true, "angle_diff_min": -30.0, "angle_diff_max": 30.0, "pf": 53.995744444444824, "qf": null, "pt": null, "qt": null}, "46": {"from_bus": "16", "to_bus": "18", "resistance": 0.002, "reactance": 0.02, "charging_susceptance": 0.598176, "branch_type": "line", "rating_long_term": 700.0, "rating_short_term": 700.0, "rating_emergency": 700.0, "in_service": true, "angle_diff_min": -30.0, "angle_diff_max": 30.0, "pf": -284.57264444444377, "qf": null, "pt": null, "qt": null}, "47": {"from_bus": "36", "to_bus": "37", "resistance": 0.002, "reactance": 0.02, "charging_susceptance": 0.598176, "branch_type": "line", "rating_long_term": 700.0, "rating_short_term": 700.0, "rating_emergency": 700.0, "in_service": true, "angle_diff_min": -30.0, "angle_diff_max": 30.0, "pf": 175.91930648944358, "qf": null, "pt": null, "qt": null}, "48": {"from_bus": "36", "to_bus": "37", "resistance": 0.002, "reactance": 0.02, "charging_susceptance": 0.598176, "branch_type": "line", "rating_long_term": 700.0, "rating_short_term": 700.0, "rating_emergency": 700.0, "in_service": true, "angle_diff_min": -30.0, "angle_diff_max": 30.0, "pf": 175.91930648944358, "qf": null, "pt": null, "qt": null}, "49": {"from_bus": "37", "to_bus": "19", "resistance": 0.004, "reactance": 0.04, "charging_susceptance": 1.201344, "branch_type": "line", "rating_long_term": 700.0, "rating_short_term": 700.0, "rating_emergency": 700.0, "in_service": true, "angle_diff_min": -30.0, "angle_diff_max": 30.0, "pf": -51.786849999999895, "qf": null, "pt": null, "qt": null}, "50": {"from_bus": "37", "to_bus": "19", "resistance": 0.004, "reactance": 0.04, "charging_susceptance": 1.201344, "branch_type": "line", "rating_long_term": 700.0, "rating_short_term": 700.0, "rating_emergency": 700.0, "in_service": true, "angle_diff_min": -30.0, "angle_diff_max": 30.0, "pf": -51.786849999999895, "qf": null, "pt": null, "qt": null}, "51": {"from_bus": "37", "to_bus": "21", "resistance": 0.011, "reactance": 0.08, "charging_susceptance": 2.397664, "branch_type": "line", "rating_long_term": 700.0, "rating_short_term": 700.0, "rating_emergency": 700.0, "in_service": true, "angle_diff_min": -30.0, "angle_diff_max": 30.0, "pf": -135.01891127809333, "qf": null, "pt": null, "qt": null}, "52": {"from_bus": "17", "to_bus": "18", "resistance": 0.001, "reactance": 0.015, "charging_susceptance": 0.497632, "branch_type": "line", "rating_long_term": 700.0, "rating_short_term": 700.0, "rating_emergency": 700.0, "in_service": true, "angle_diff_min": -30.0, "angle_diff_max": 30.0, "pf": -415.4273555555549, "qf": null, "pt": null, "qt": null}, "53": {"from_bus": "20", "to_bus": "21", "resistance": 0.002, "reactance": 0.02, "charging_susceptance": 0.598176, "branch_type": "line", "rating_long_term": 700.0, "rating_short_term": 700.0, "rating_emergency": 700.0, "in_service": true, "angle_diff_min": -30.0, "angle_diff_max": 30.0, "pf": -364.4211070277926, "qf": null, "pt": null, "qt": null}, "54": {"from_bus": "21", "to_bus": "22", "resistance": 0.003, "reactance": 0.03, "charging_susceptance": 0.899744, "branch_type": "line", "rating_long_term": 700.0, "rating_short_term": 700.0, "rating_emergency": 700.0, "in_service": true, "angle_diff_min": -30.0, "angle_diff_max": 30.0, "pf": -129.72000915294294, "qf": null, "pt": null, "qt": null}, "55": {"from_bus": "21", "to_bus": "22", "resistance": 0.003, "reactance": 0.03, "charging_susceptance": 0.899744, "branch_type": "line", "rating_long_term": 700.0, "rating_short_term": 700.0, "rating_emergency": 700.0, "in_service": true, "angle_diff_min": -30.0, "angle_diff_max": 30.0, "pf": -129.72000915294294, "qf": null, "pt": null, "qt": null}, "56": {"from_bus": "12", "to_bus": "13", "resistance": 0.003, "reactance": 0.03, "charging_susceptance": 3.000864, "branch_type": "line", "rating_long_term": 700.0, "rating_short_term": 700.0, "rating_emergency": 700.0, "in_service": true, "angle_diff_min": -30.0, "angle_diff_max": 30.0, "pf": -350.0000000000008, "qf": null, "pt": null, "qt": null}, "57": {"from_bus": "12", "to_bus": "13", "resistance": 0.003, "reactance": 0.03, "charging_susceptance": 3.000864, "branch_type": "line", "rating_long_term": 700.0, "rating_short_term": 700.0, "rating_emergency": 700.0, "in_service": true, "angle_diff_min": -30.0, "angle_diff_max": 30.0, "pf": -350.0000000000008, "qf": null, "pt": null, "qt": null}, "58": {"from_bus": "2", "to_bus": "38", "resistance": 0.0, "reactance": 0.01875, "charging_susceptance": 0.0, "transformer_tap_ratio": 1.0, "transformer_phase_shift": 0.0, "branch_type": "transformer", "rating_long_term": 800.0, "rating_short_term": 800.0, "rating_emergency": 800.0, "in_service": true, "angle_diff_min": -30.0, "angle_diff_max": 30.0, "pf": -10.000000000000224, "qf": null, "pt": null, "qt": null}, "59": {"from_bus": "3", "to_bus": "39", "resistance": 0.0, "reactance": 0.025, "charging_susceptance": 0.0, "transformer_tap_ratio": 1.0, "transformer_phase_shift": 0.0, "branch_type": "transformer", "rating_long_term": 600.0, "rating_short_term": 600.0, "rating_emergency": 600.0, "in_service": true, "angle_diff_min": -30.0, "angle_diff_max": 30.0, "pf": -10.000000000000098, "qf": null, "pt": null, "qt": null}, "60": {"from_bus": "24", "to_bus": "40", "resistance": 0.0, "reactance": 0.021429, "charging_susceptance": 0.0, "transformer_tap_ratio": 1.0, "transformer_phase_shift": 0.0, "branch_type": "transformer", "rating_long_term": 700.0, "rating_short_term": 700.0, "rating_emergency": 700.0, "in_service": true, "angle_diff_min": -30.0, "angle_diff_max": 30.0, "pf": -154.73928861080006, "qf": null, "pt": null, "qt": null}, "61": {"from_bus": "25", "to_bus": "41", "resistance": 0.0, "reactance": 0.025, "charging_susceptance": 0.0, "transformer_tap_ratio": 1.0, "transformer_phase_shift": 0.0, "branch_type": "transformer", "rating_long_term": 600.0, "rating_short_term": 600.0, "rating_emergency": 600.0, "in_service": true, "angle_diff_min": -30.0, "angle_diff_max": 30.0, "pf": -9.99999999999992, "qf": null, "pt": null, "qt": null}, "62": {"from_bus": "4", "to_bus": "42", "resistance": 0.0, "reactance": 0.06, "charging_susceptance": 0.0, "transformer_tap_ratio": 1.0, "transformer_phase_shift": 0.0, "branch_type": "transformer", "rating_long_term": 1250.0, "rating_short_term": 1250.0, "rating_emergency": 1250.0, "in_service": true, "angle_diff_min": -30.0, "angle_diff_max": 30.0, "pf": -474.9999999999999, "qf": null, "pt": null, "qt": null}, "63": {"from_bus": "6", "to_bus": "43", "resistance": 0.0, "reactance": 0.0375, "charging_susceptance": 0.0, "transformer_tap_ratio": 1.0, "transformer_phase_shift": 0.0, "branch_type": "transformer", "rating_long_term": 400.0, "rating_short_term": 400.0, "rating_emergency": 400.0, "in_service": true, "angle_diff_min": -30.0, "angle_diff_max": 30.0, "pf": -399.99999999999994, "qf": null, "pt": null, "qt": null}, "64": {"from_bus": "7", "to_bus": "44", "resistance": 0.0, "reactance": 0.075, "charging_susceptance": 0.0, "transformer_tap_ratio": 1.0, "transformer_phase_shift": 0.0, "branch_type": "transformer", "rating_long_term": 1200.0, "rating_short_term": 1200.0, "rating_emergency": 1200.0, "in_service": true, "angle_diff_min": -30.0, "angle_diff_max": 30.0, "pf": -150.50259634504923, "qf": null, "pt": null, "qt": null}, "65": {"from_bus": "11", "to_bus": "45", "resistance": 0.0, "reactance": 0.017647, "charging_susceptance": 0.0, "transformer_tap_ratio": 1.0, "transformer_phase_shift": 0.0, "branch_type": "transformer", "rating_long_term": 850.0, "rating_short_term": 850.0, "rating_emergency": 850.0, "in_service": true, "angle_diff_min": -30.0, "angle_diff_max": 30.0, "pf": -10.0, "qf": null, "pt": null, "qt": null}, "66": {"from_bus": "26", "to_bus": "46", "resistance": 0.0, "reactance": 0.015, "charging_susceptance": 0.0, "transformer_tap_ratio": 1.0, "transformer_phase_shift": 0.0, "branch_type": "transformer", "rating_long_term": 1000.0, "rating_short_term": 1000.0, "rating_emergency": 1000.0, "in_service": true, "angle_diff_min": -30.0, "angle_diff_max": 30.0, "pf": -289.8114137506403, "qf": null, "pt": null, "qt": null}, "67": {"from_bus": "23", "to_bus": "47", "resistance": 0.0, "reactance": 0.01875, "charging_susceptance": 0.0, "transformer_tap_ratio": 1.0, "transformer_phase_shift": 0.0, "branch_type": "transformer", "rating_long_term": 800.0, "rating_short_term": 800.0, "rating_emergency": 800.0, "in_service": true, "angle_diff_min": -30.0, "angle_diff_max": 30.0, "pf": -720.0000000000002, "qf": null, "pt": null, "qt": null}, "68": {"from_bus": "27", "to_bus": "48", "resistance": 0.0, "reactance": 0.05, "charging_susceptance": 0.0, "transformer_tap_ratio": 1.0, "transformer_phase_shift": 0.0, "branch_type": "transformer", "rating_long_term": 300.0, "rating_short_term": 300.0, "rating_emergency": 300.0, "in_service": true, "angle_diff_min": -30.0, "angle_diff_max": 30.0, "pf": -10.000000000000014, "qf": null, "pt": null, "qt": null}, "69": {"from_bus": "31", "to_bus": "49", "resistance": 0.0, "reactance": 0.042857, "charging_susceptance": 0.0, "transformer_tap_ratio": 1.0, "transformer_phase_shift": 0.0, "branch_type": "transformer", "rating_long_term": 1350.0, "rating_short_term": 1350.0, "rating_emergency": 1350.0, "in_service": true, "angle_diff_min": -30.0, "angle_diff_max": 30.0, "pf": -574.9999999999999, "qf": null, "pt": null, "qt": null}, "70": {"from_bus": "14", "to_bus": "50", "resistance": 0.0, "reactance": 0.033333, "charging_susceptance": 0.0, "transformer_tap_ratio": 1.0, "transformer_phase_shift": 0.0, "branch_type": "transformer", "rating_long_term": 300.0, "rating_short_term": 300.0, "rating_emergency": 300.0, "in_service": true, "angle_diff_min": -30.0, "angle_diff_max": 30.0, "pf": 3.0005663258820794e-15, "qf": null, "pt": null, "qt": null}, "71": {"from_bus": "15", "to_bus": "51", "resistance": 0.0, "reactance": 0.021429, "charging_susceptance": 0.0, "transformer_tap_ratio": 1.0, "transformer_phase_shift": 0.0, "branch_type": "transformer", "rating_long_term": 700.0, "rating_short_term": 700.0, "rating_emergency": 700.0, "in_service": true, "angle_diff_min": -30.0, "angle_diff_max": 30.0, "pf": -618.5033829876236, "qf": null, "pt": null, "qt": null}, "72": {"from_bus": "18", "to_bus": "52", "resistance": 0.0, "reactance": 0.025, "charging_susceptance": 0.0, "transformer_tap_ratio": 1.0, "transformer_phase_shift": 0.0, "branch_type": "transformer", "rating_long_term": 600.0, "rating_short_term": 600.0, "rating_emergency": 600.0, "in_service": true, "angle_diff_min": -30.0, "angle_diff_max": 30.0, "pf": -227.00329999999846, "qf": null, "pt": null, "qt": null}, "73": {"from_bus": "18", "to_bus": "53", "resistance": 0.0, "reactance": 0.025, "charging_susceptance": 0.0, "transformer_tap_ratio": 1.0, "transformer_phase_shift": 0.0, "branch_type": "transformer", "rating_long_term": 600.0, "rating_short_term": 600.0, "rating_emergency": 600.0, "in_service": true, "angle_diff_min": -30.0, "angle_diff_max": 30.0, "pf": -540.0, "qf": null, "pt": null, "qt": null}, "74": {"from_bus": "19", "to_bus": "54", "resistance": 0.0, "reactance": 0.021429, "charging_susceptance": 0.0, "transformer_tap_ratio": 1.0, "transformer_phase_shift": 0.0, "branch_type": "transformer", "rating_long_term": 700.0, "rating_short_term": 700.0, "rating_emergency": 700.0, "in_service": true, "angle_diff_min": -30.0, "angle_diff_max": 30.0, "pf": -630.0, "qf": null, "pt": null, "qt": null}, "75": {"from_bus": "19", "to_bus": "55", "resistance": 0.0, "reactance": 0.021429, "charging_susceptance": 0.0, "transformer_tap_ratio": 1.0, "transformer_phase_shift": 0.0, "branch_type": "transformer", "rating_long_term": 700.0, "rating_short_term": 700.0, "rating_emergency": 700.0, "in_service": true, "angle_diff_min": -30.0, "angle_diff_max": 30.0, "pf": -10.000000000000005, "qf": null, "pt": null, "qt": null}, "76": {"from_bus": "21", "to_bus": "56", "resistance": 0.0, "reactance": 0.025, "charging_susceptance": 0.0, "transformer_tap_ratio": 1.0, "transformer_phase_shift": 0.0, "branch_type": "transformer", "rating_long_term": 600.0, "rating_short_term": 600.0, "rating_emergency": 600.0, "in_service": true, "angle_diff_min": -30.0, "angle_diff_max": 30.0, "pf": -540.0, "qf": null, "pt": null, "qt": null}, "77": {"from_bus": "22", "to_bus": "57", "resistance": 0.0, "reactance": 0.025, "charging_susceptance": 0.0, "transformer_tap_ratio": 1.0, "transformer_phase_shift": 0.0, "branch_type": "transformer", "rating_long_term": 600.0, "rating_short_term": 600.0, "rating_emergency": 600.0, "in_service": true, "angle_diff_min": -30.0, "angle_diff_max": 30.0, "pf": -309.4400183058858, "qf": null, "pt": null, "qt": null}, "78": {"from_bus": "22", "to_bus": "58", "resistance": 0.0, "reactance": 0.025, "charging_susceptance": 0.0, "transformer_tap_ratio": 1.0, "transformer_phase_shift": 0.0, "branch_type": "transformer", "rating_long_term": 600.0, "rating_short_term": 600.0, "rating_emergency": 600.0, "in_service": true, "angle_diff_min": -30.0, "angle_diff_max": 30.0, "pf": -540.0, "qf": null, "pt": null, "qt": null}, "79": {"from_bus": "12", "to_bus": "59", "resistance": 0.0, "reactance": 0.03, "charging_susceptance": 0.0, "transformer_tap_ratio": 1.0, "transformer_phase_shift": 0.0, "branch_type": "transformer", "rating_long_term": 500.0, "rating_short_term": 500.0, "rating_emergency": 500.0, "in_service": true, "angle_diff_min": -30.0, "angle_diff_max": 30.0, "pf": -10.000000000000272, "qf": null, "pt": null, "qt": null}, "80": {"from_bus": "13", "to_bus": "60", "resistance": 0.0, "reactance": 0.003333, "charging_susceptance": 0.0, "transformer_tap_ratio": 1.0, "transformer_phase_shift": 0.0, "branch_type": "transformer", "rating_long_term": 4500.0, "rating_short_term": 4500.0, "rating_emergency": 4500.0, "in_service": true, "angle_diff_min": -30.0, "angle_diff_max": 30.0, "pf": -2700.0000000000023, "qf": null, "pt": null, "qt": null}, "81": {"from_bus": "26", "to_bus": "1", "resistance": 0.0, "reactance": 0.008, "charging_susceptance": 0.0, "transformer_tap_ratio": 0.89286, "transformer_phase_shift": 0.0, "branch_type": "transformer", "rating_long_term": 1250.0, "rating_short_term": 1250.0, "rating_emergency": 1250.0, "in_service": true, "angle_diff_min": -30.0, "angle_diff_max": 30.0, "pf": 176.48042013444964, "qf": null, "pt": null, "qt": null}, "82": {"from_bus": "23", "to_bus": "2", "resistance": 0.0, "reactance": 0.008, "charging_susceptance": 0.0, "transformer_tap_ratio": 0.89286, "transformer_phase_shift": 0.0, "branch_type": "transformer", "rating_long_term": 1250.0, "rating_short_term": 1250.0, "rating_emergency": 1250.0, "in_service": true, "angle_diff_min": -30.0, "angle_diff_max": 30.0, "pf": 248.78029125475015, "qf": null, "pt": null, "qt": null}, "83": {"from_bus": "28", "to_bus": "4", "resistance": 0.0, "reactance": 0.012, "charging_susceptance": 0.0, "transformer_tap_ratio": 0.93458, "transformer_phase_shift": 0.0, "branch_type": "transformer", "rating_long_term": 833.3000000000001, "rating_short_term": 833.3000000000001, "rating_emergency": 833.3000000000001, "in_service": true, "angle_diff_min": -30.0, "angle_diff_max": 30.0, "pf": -204.99999999999963, "qf": null, "pt": null, "qt": null}, "84": {"from_bus": "31", "to_bus": "10", "resistance": 0.0, "reactance": 0.012, "charging_susceptance": 0.0, "transformer_tap_ratio": 0.95238, "transformer_phase_shift": 0.0, "branch_type": "transformer", "rating_long_term": 833.3000000000001, "rating_short_term": 833.3000000000001, "rating_emergency": 833.3000000000001, "in_service": true, "angle_diff_min": -30.0, "angle_diff_max": 30.0, "pf": 290.00000000000006, "qf": null, "pt": null, "qt": null}, "85": {"from_bus": "36", "to_bus": "8", "resistance": 0.0, "reactance": 0.01, "charging_susceptance": 0.0, "transformer_tap_ratio": 1.0, "transformer_phase_shift": 0.0, "branch_type": "transformer", "rating_long_term": 1000.0, "rating_short_term": 1000.0, "rating_emergency": 1000.0, "in_service": true, "angle_diff_min": -30.0, "angle_diff_max": 30.0, "pf": 311.27643969898503, "qf": null, "pt": null, "qt": null}, "86": {"from_bus": "36", "to_bus": "8", "resistance": 0.0, "reactance": 0.01, "charging_susceptance": 0.0, "transformer_tap_ratio": 1.0, "transformer_phase_shift": 0.0, "branch_type": "transformer", "rating_long_term": 1000.0, "rating_short_term": 1000.0, "rating_emergency": 1000.0, "in_service": true, "angle_diff_min": -30.0, "angle_diff_max": 30.0, "pf": 311.27643969898503, "qf": null, "pt": null, "qt": null}, "87": {"from_bus": "37", "to_bus": "9", "resistance": 0.0, "reactance": 0.01, "charging_susceptance": 0.0, "transformer_tap_ratio": 1.0, "transformer_phase_shift": 0.0, "branch_type": "transformer", "rating_long_term": 1000.0, "rating_short_term": 1000.0, "rating_emergency": 1000.0, "in_service": true, "angle_diff_min": -30.0, "angle_diff_max": 30.0, "pf": 295.21561212849036, "qf": null, "pt": null, "qt": null}, "88": {"from_bus": "37", "to_bus": "9", "resistance": 0.0, "reactance": 0.01, "charging_susceptance": 0.0, "transformer_tap_ratio": 1.0, "transformer_phase_shift": 0.0, "branch_type": "transformer", "rating_long_term": 1000.0, "rating_short_term": 1000.0, "rating_emergency": 1000.0, "in_service": true, "angle_diff_min": -30.0, "angle_diff_max": 30.0, "pf": 295.21561212849036, "qf": null, "pt": null, "qt": null}}, "contingency": {"1": {"branch_contingency": "1"}, "2": {"branch_contingency": "2"}, "3": {"branch_contingency": "3"}, "4": {"branch_contingency": "4", "monitored_branches": {"3": {"pf": -30.36656907930622}}}, "5": {"branch_contingency": "5"}, "6": {"branch_contingency": "6"}, "7": {"branch_contingency": "7"}, "8": {"branch_contingency": "8"}, "9": {"branch_contingency": "9", "monitored_branches": {"10": {"pf": -174.99999999999994}}}, "10": {"branch_contingency": "10", "monitored_branches": {"9": {"pf": -174.99999999999994}}}, "11": {"branch_contingency": "11"}, "12": {"branch_contingency": "12"}, "13": {"branch_contingency": "13", "monitored_branches": {"63": {"pf": -400.0}}}, "14": {"branch_contingency": "14", "monitored_branches": {"63": {"pf": -400.0}}}, "15": {"branch_contingency": "15"}, "16": {"branch_contingency": "16"}, "17": {"branch_contingency": "17"}, "18": {"branch_contingency": "18"}, "19": {"branch_contingency": "19"}, "20": {"branch_contingency": "20"}, "21": {"branch_contingency": "21", "monitored_branches": {"31": {"pf": 699.9999999999993}, "24": {"pf": 543.525679291706}}}, "22": {"branch_contingency": "22", "monitored_branches": {"24": {"pf": 532.3214954423045}}}, "23": {"branch_contingency": "23", "monitored_branches": {"20": {"pf": -492.0634539760795}}}, "24": {"branch_contingency": "24", "monitored_branches": {"20": {"pf": -594.9067720381299}, "22": {"pf": 508.0976935411985}}}, "25": {"branch_contingency": "25"}, "26": {"branch_contingency": "26"}, "27": {"branch_contingency": "27"}, "28": {"branch_contingency": "28"}, "29": {"branch_contingency": "29", "monitored_branches": {"30": {"pf": 699.9999999999998}}}, "30": {"branch_contingency": "30", "monitored_branches": {"29": {"pf": 699.9999999999998}}}, "31": {"branch_contingency": "31"}, "32": {"branch_contingency": "32"}, "33": {"branch_contingency": "33"}, "34": {"branch_contingency": "34"}, "35": {"branch_contingency": "35"}, "36": {"branch_contingency": "36"}, "37": {"branch_contingency": "37"}, "38": {"branch_contingency": "38"}, "39": {"branch_contingency": "39"}, "40": {"branch_contingency": "40"}, "41": {"branch_contingency": "41"}, "42": {"branch_contingency": "42", "monitored_branches": {"63": {"pf": -400.0}}}, "43": {"branch_contingency": "43", "monitored_branches": {"42": {"pf": 699.9999999999999}}}, "44": {"branch_contingency": "44"}, "45": {"branch_contingency": "45"}, "46": {"branch_contingency": "46", "monitored_branches": {"52": {"pf": -700.0000000000023}, "63": {"pf": -400.0}}}, "47": {"branch_contingency": "47"}, "48": {"branch_contingency": "48"}, "49": {"branch_contingency": "49"}, "50": {"branch_contingency": "50"}, "51": {"branch_contingency": "51"}, "52": {"branch_contingency": "52", "monitored_branches": {"46": {"pf": -700.0000000000018}}}, "53": {"branch_contingency": "53"}, "54": {"branch_contingency": "54"}, "55": {"branch_contingency": "55"}, "56": {"branch_contingency": "56", "monitored_branches": {"57": {"pf": -700.0000000000019}}}, "57": {"branch_contingency": "57", "monitored_branches": {"56": {"pf": -700.0000000000019}}}, "81": {"branch_contingency": "81"}, "82": {"branch_contingency": "82"}, "85": {"branch_contingency": "85"}, "86": {"branch_contingency": "86"}, "87": {"branch_contingency": "87"}, "88": {"branch_contingency": "88"}}}, "system": {"model_name": "pglib_opf_case60_c", "mpc_version": "'2'", "baseMVA": 100.0, "reference_bus": "52", "reference_bus_angle": 0.0, "load_mismatch_cost": 1000000.0, "total_cost": 99764.43318305889, "p_balance_violation": 0.0}}